%chk=BFPtPZ_tBu.chk
%mem=2GB
%nprocs=12
# B3LYP/GEN PSEUD=READ SCF=verytight OPT=Tight

Title Card Required

0 1
Pt     -0.283707    0.416895   -1.382986
Pt     -0.072141   -0.638661	1.241534
F  	4.489421   -0.345674   -3.409372
F  	3.981543    3.716555   -1.151283
F  	4.709323   -2.672423	1.996693
F  	4.470429    1.946643	2.547755
N      -2.119400   -0.487910   -0.802757
N      -2.032411   -0.947681	0.497919
N      -0.729350    1.858650	0.018696
N      -0.552224    1.353883	1.296160
N  	0.389888   -1.107250   -2.521423
N  	0.552951   -2.540845	1.008406
C      -3.916314   -0.292909   -2.610312
C      -3.365779   -0.737739   -1.237417
C      -4.088266   -1.348250   -0.219213
H      -5.015723   -1.642739   -0.256253
C      -3.226304   -1.453651	0.853488
C      -3.551248   -1.909408	2.263011
C      -2.923220   -0.245914   -3.685927
H      -3.350305    0.109115   -4.519032
H      -2.573145   -1.166205   -3.860706
H      -2.167387    0.352886   -3.420338
C      -4.458080    1.092805   -2.398158
H      -3.921013    1.558861   -1.695167
H      -5.412770    1.038651   -2.104313
H      -4.404543    1.608780   -3.252446
C      -5.057860   -1.190854   -2.949684
H      -5.736412   -0.683753   -3.482149
H      -5.481791   -1.529112   -2.109469
H      -4.725779   -1.966165   -3.488445
C      -4.866688   -2.720793	2.239751
H      -5.610640   -2.143095	1.900470
H      -5.081730   -3.031044	3.165965
H      -4.760879   -3.513281	1.639192
C      -2.442955   -2.755412	2.899341
H      -2.344656   -3.613022	2.394165
H      -2.679537   -2.954542	3.849349
H      -1.578512   -2.251963	2.870202
C      -3.787201   -0.663506	3.109391
H      -2.955061   -0.108463	3.124782
H      -4.024209   -0.934697	4.042473
H      -4.535577   -0.128921	2.715974
C      -1.323232    4.118202   -1.049619
C      -0.967653    3.171355	0.108217
C      -0.951447    3.528275	1.446606
H      -1.101308    4.417926	1.814509
C      -0.683603    2.370367	2.162771
C      -0.616760    2.304185	3.698517
C      -1.005044    3.576051   -2.425041
H      -1.364458    2.646772   -2.511052
H      -0.013544    3.561509   -2.557898
H      -1.425788    4.161019   -3.118046
C      -0.505733    5.416928   -0.881726
H      -0.728654    6.048247   -1.625232
H  	0.472139    5.203391   -0.909392
H      -0.727218    5.842906   -0.005135
C      -2.766705    4.499441   -0.922480
H      -3.006814    5.145808   -1.646283
H      -2.923582    4.925664   -0.030744
H      -3.339058    3.682701   -1.003411
C      -0.287314    0.907898	4.250848
H  	0.659445    0.674902	4.029756
H      -0.899431    0.231539	3.840158
H      -0.409037    0.906151	5.243566
C  	0.439394    3.281965	4.201202
H  	1.343387    2.985522	3.893063
H  	0.421718    3.307539	5.200083
H  	0.249840    4.196074	3.840209
C      -2.022561    2.726175	4.216934
H      -2.020982    2.727987	5.217662
H      -2.707718    2.078329	3.886100
H      -2.241017    3.643257	3.883452
C      -0.301843   -2.242324   -2.752994
H      -1.224311   -2.300522   -2.439033
C  	0.253719   -3.326120   -3.421555
H      -0.270365   -4.131999   -3.586490
C  	1.555868   -3.235382   -3.843618
H  	1.959795   -3.981790   -4.323539
C  	2.300587   -2.101094   -3.594771
H  	3.230927   -2.042034   -3.883852
C  	1.688511   -1.024150   -2.915351
C  	2.349051    0.220796   -2.510672
C  	3.692386    0.549362   -2.727665
C  	4.251636    1.721698   -2.295192
H  	5.182679    1.951092   -2.476312
C  	3.419363    2.552961   -1.589485
C  	2.108872    2.285949   -1.307070
H  	1.581341    2.917215   -0.783032
C  	1.536982    1.115010   -1.768329
C      -0.238409   -3.545802	0.529279
H      -1.174768   -3.358788	0.329539
C  	0.266990   -4.823516	0.325590
H      -0.308390   -5.537574   -0.005479
C  	1.606934   -5.063441	0.603828
H  	1.973876   -5.958114	0.470196
C  	2.425809   -4.057690	1.065648
H  	3.367438   -4.230539	1.249043
C  	1.880572   -2.761807	1.268813
C  	2.608189   -1.581317	1.688427
C  	3.982471   -1.499465	2.002115
C  	4.597682   -0.330152	2.307240
H  	5.544090   -0.299287	2.541095
C  	3.830196    0.817336	2.269264
C  	2.484288    0.814117	1.987802
H  	1.982564    1.649761	1.971674
C  	1.843116   -0.406188	1.721638

H     0
S    3   1.00
     33.86500                0.0254938
      5.094790               0.190373
      1.158790               0.852161
S    1   1.00
      0.325840               1.000000
S    1   1.00
      0.102741               1.000000
S    1   1.00
      0.0360000              1.0000000
P    1   1.00
      0.750                  1.000000
****
C     0
S    6   1.00
   4563.240                  0.00196665
    682.0240                 0.0152306
    154.9730                 0.0761269
     44.45530                0.2608010
     13.02900                0.6164620
      1.827730               0.2210060
SP   3   1.00
     20.96420                0.114660               0.0402487
      4.803310               0.919999               0.237594
      1.459330              -0.00303068             0.815854
SP   1   1.00
      0.4834560              1.000000               1.000000
SP   1   1.00
      0.1455850              1.000000               1.000000
SP   1   1.00
      0.0438000              1.0000000              1.0000000
D    1   1.00
      0.626                  1.000000
****
N     0
S    6   1.00
   6293.480                  0.00196979
    949.0440                 0.0149613
    218.7760                 0.0735006
     63.69160                0.2489370
     18.82820                0.6024600
      2.720230               0.2562020
SP   3   1.00
     30.63310                0.111906               0.0383119
      7.026140               0.921666               0.237403
      2.112050              -0.00256919             0.817592
SP   1   1.00
      0.684009               1.000000               1.000000
SP   1   1.00
      0.200878               1.000000               1.000000
SP   1   1.00
      0.0639000              1.0000000              1.0000000
D    1   1.00
      0.913                  1.000000
****
F     0
S    6   1.00
  11427.10                   0.00180093
   1722.350                  0.0137419
    395.7460                 0.0681334
    115.1390                 0.2333250
     33.60260                0.5890860
      4.919010               0.2995050
SP   3   1.00
     55.44410                0.114536               0.0354609
     12.63230                0.920512               0.237451
      3.717560              -0.00337804             0.820458
SP   1   1.00
      1.165450               1.000000               1.000000
SP   1   1.00
      0.321892               1.000000               1.000000
SP   1   1.00
      0.1076000              1.0000000              1.0000000
D    1   1.00
      1.750                  1.000000
****
Pt     0
S    1   1.00
      2.5470000              1.0000000
S    1   1.00
      1.6140000              1.0000000
S    1   1.00
      0.5167000              1.0000000
S    1   1.00
      0.2651000              1.0000000
S    1   1.00
      0.0580000              1.0000000
P    1   1.00
      2.9110000              1.0000000
P    1   1.00
      1.8360000              1.0000000
P    1   1.00
      0.5982000              1.0000000
P    1   1.00
      0.0996000              1.0000000
P    1   1.00
      0.0290000              1.0000000
D    1   1.00
      1.2430000              1.0000000
D    1   1.00
      0.4271000              1.0000000
D    1   1.00
      0.1370000              1.0000000
****

PT     0
PT-ECP     4     60
g potential
  5
1    728.9394056             -0.1619268
2    320.6567800          -1320.2873852
2     52.8680174           -298.3178135
2     12.0280128            -87.5837065
2      3.5238913             -8.1493274
s-g potential
  6
0    409.4437358              2.7334218
1    274.5419231             59.7024329
2    127.5658570            891.4589550
2     32.9036631            368.4467656
2      5.0593880            238.0263090
2      4.1506556           -107.0556454
p-g potential
  4
0    466.1728892              1.8878568
1    120.7888259             76.0138629
2     36.4118791            343.5511116
2      5.6985408            119.4911786
d-g potential
  5
0    249.5650763              2.9343678
1    126.6678585             59.3306571
2     63.1430586            452.4445194
2     17.9059470            210.4769479
2      4.2239373             58.6254112
f-g potential
  5
0    121.8158799              3.9534253
1     60.8757030             53.8555182
2     31.4767147            247.4305133
2      9.8811751            127.8187976
2      2.7319874             15.3772046



