%chk=acoh_freq_anharm.chk
%mem=2GB
%NProcShared=2
# freq (anharm)
# external="/home/mot/mace_gaussian/gm_helper.py"

Gaussian input generated from ASE

0 1
C     -3.59012125    -1.02536871    -0.06670801
H     -3.21562288    -2.05183888    -0.04776254
H     -3.23649321    -0.52118548    -0.97738234
H     -4.68923417    -1.03479107    -0.08777943
C     -3.08816321    -0.30402463     1.16946957
O     -2.38232112    -0.78414147     2.04502840
O     -3.52630005     0.97716466     1.19355720
H     -3.17113193     1.38402870     2.00846690

